Circuit: * C:\Users\Hamish\Desktop\25v PSU\Draft1.asc

Direct Newton iteration failed to find .op point.  (Use ".option noopiter" to skip.)
Starting Gmin stepping
Gmin = 10
Gmin = 1.07374
Gmin = 0.115292
Gmin = 0.0123794
Gmin = 0.00132923
Gmin = 0.000142725
Gmin = 1.5325e-05
Gmin = 1.6455e-06
Gmin = 1.76685e-07
Gmin = 1.89714e-08
Gmin = 2.03704e-09
Gmin = 2.18725e-10
Gmin = 2.34854e-11
Gmin = 2.52173e-12
Gmin = 2.70769e-13
Gmin = 0
Gmin stepping succeeded in finding the operating point.


Date: Mon Apr  6 16:25:00 2020
Total elapsed time: 0.292 seconds.

tnom = 27
temp = 27
method = modified trap
totiter = 58866
traniter = 58489
tranpoints = 11583
accept = 8367
rejected = 3216
matrix size = 12
fillins = 2
solver = Normal
Matrix Compiler1: 932 bytes object code size  0.1/0.1/[0.1]
Matrix Compiler2: 1.05 KB object code size  0.1/0.2/[0.1]

